    63
 Tv_1:  10.456800   0.000000   0.000000 Tv_2:   0.000000   9.080200   0.000000 Tv_3:   0.000000   0.000000  20.766799
Ti     -0.06786160      0.00815324      3.63428473
Ti      2.52649226      1.51834985      3.63701655
Ti      1.79386404      0.00000000      1.03838328
Ti      4.40775034      1.51336667      1.03770915
C       0.79147519      1.51336667      2.34200774
C       3.40515235      0.00000000      2.34268186
O       1.66685990      9.07651520      4.55468853
O       4.27047617      1.51183911      4.55107383
O      10.38799426      0.00000000      0.12992428
O       2.54560339      1.51336667      0.12975596
Ti      5.14099650      0.00660469      3.65069657
Ti      7.76166939      1.51241675      3.64065642
Ti      7.02226404      0.00000000      1.03838328
Ti      9.63615034      1.51336667      1.03770915
C       6.01987519      1.51336667      2.34200774
C       8.63355235     -0.00000000      2.34268186
O       6.87391673      9.07978249      4.55355082
O       9.52511686      1.51392096      4.55683779
O       5.15959426      0.00000000      0.12992428
O       7.77400339      1.51336667      0.12975596
Ti     -0.07832913      3.02648576      3.63940321
Ti      2.49685327      4.53940241      3.57845265
Ti      1.79386404      3.02673333      1.03838328
Ti      4.40775034      4.54010000      1.03770915
C       0.79147519      4.54010000      2.34200774
C       3.40515235      3.02673333      2.34268186
O       1.66625524      3.02956178      4.55117163
O       4.27037496      4.53840511      4.69566561
O      10.38799426      3.02673333      0.12992428
O       2.54560339      4.54010000      0.12975596
Ti      5.16753020      2.97490128      3.58239901
Ti      7.74465789      4.51152051      3.56720352
Ti      7.02226404      3.02673333      1.03838328
Ti      9.63615034      4.54010000      1.03770915
C       6.01987519      4.54010000      2.34200774
C       8.63355235      3.02673333      2.34268186
O       6.87682014      3.02790376      4.54815873
O       9.46101838      4.61277816      4.62699901
O       5.15959426      3.02673333      0.12992428
O       7.77400339      4.54010000      0.12975596
Ti     -0.06239294      6.05615313      3.57577960
Ti      2.53239988      7.58022043      3.53193424
Ti      1.79386404      6.05346667      1.03838328
Ti      4.40775034      7.56683333      1.03770915
C       0.79147519      7.56683333      2.34200774
C       3.40515235      6.05346667      2.34268186
O       1.74394569      6.10011457      4.61913596
O       4.25813337      7.55825030      4.61938011
O      10.38799426      6.05346667      0.12992428
O       2.54560339      7.56683333      0.12975596
Ti      5.19851367      6.09724761      3.59311164
Ti      7.76959219      7.59070583      3.56643257
Ti      7.02226404      6.05346667      1.03838328
Ti      9.63615034      7.56683333      1.03770915
C       6.01987519      7.56683333      2.34200774
C       8.63355235      6.05346667      2.34268186
O       6.95001254      6.05363930      4.61744097
O       9.46047254      7.49430064      4.63009994
O       5.15959426      6.05346667      0.12992428
O       7.77400339      7.56683333      0.12975596
S       4.39378372      4.66263039      6.44106500
Li      3.16397883      6.59869206      6.02024720
Li      8.56941067      6.02699168      5.76013955
