    63
 Tv_1:  10.456800   0.000000   0.000000 Tv_2:   0.000000   9.080200   0.000000 Tv_3:   0.000000   0.000000  20.766799
Ti     -0.06260487      0.00407357      3.62684038
Ti      2.52464079      1.51768812      3.63750311
Ti      1.79386404      0.00000000      1.03838328
Ti      4.40775034      1.51336667      1.03770915
C       0.79147519      1.51336667      2.34200774
C       3.40515235     -0.00000000      2.34268186
O       1.67179965      9.07667266      4.55326133
O       4.27422741      1.51284029      4.54983735
O      10.38799426     -0.00000000      0.12992428
O       2.54560339      1.51336667      0.12975596
Ti      5.13760734      0.00537101      3.65029444
Ti      7.77960646      1.50794761      3.63687955
Ti      7.02226404      0.00000000      1.03838328
Ti      9.63615034      1.51336667      1.03770915
C       6.01987519      1.51336667      2.34200774
C       8.63355235     -0.00000000      2.34268186
O       6.87948246      9.07792797      4.55975311
O       9.51996883      1.51581192      4.55657355
O       5.15959426     -0.00000000      0.12992428
O       7.77400339      1.51336667      0.12975596
Ti     -0.06932991      3.02821490      3.63977783
Ti      2.49486979      4.53272195      3.56597848
Ti      1.79386404      3.02673333      1.03838328
Ti      4.40775034      4.54010000      1.03770915
C       0.79147519      4.54010000      2.34200774
C       3.40515235      3.02673333      2.34268186
O       1.67140918      3.02660671      4.54968844
O       4.26787038      4.53854117      4.70519286
O      10.38799426      3.02673333      0.12992428
O       2.54560339      4.54010000      0.12975596
Ti      5.16995529      2.97040295      3.56639964
Ti      7.79036906      4.53709054      3.53982856
Ti      7.02226404      3.02673333      1.03838328
Ti      9.63615034      4.54010000      1.03770915
C       6.01987519      4.54010000      2.34200774
C       8.63355235      3.02673333      2.34268186
O       6.87000110      3.09896588      4.62067450
O       9.52164182      4.54289802      4.55675326
O       5.15959426      3.02673333      0.12992428
O       7.77400339      4.54010000      0.12975596
Ti     -0.06628434      6.04991051      3.64448956
Ti      2.52449232      7.58426748      3.52620732
Ti      1.79386404      6.05346667      1.03838328
Ti      4.40775034      7.56683333      1.03770915
C       0.79147519      7.56683333      2.34200774
C       3.40515235      6.05346667      2.34268186
O       1.74588298      6.06796212      4.62099834
O       4.25837923      7.55210941      4.61929995
O      10.38799426      6.05346667      0.12992428
O       2.54560339      7.56683333      0.12975596
Ti      5.18413548      6.10595730      3.55315188
Ti      7.78427213      7.57488118      3.64038575
Ti      7.02226404      6.05346667      1.03838328
Ti      9.63615034      7.56683333      1.03770915
C       6.01987519      7.56683333      2.34200774
C       8.63355235      6.05346667      2.34268186
O       6.87386358      5.98662141      4.61905518
O       9.52308612      7.56287492      4.55965121
O       5.15959426      6.05346667      0.12992428
O       7.77400339      7.56683333      0.12975596
S       4.28965859      4.56372683      6.48086621
Li      3.17213947      6.58732622      6.01315476
Li      6.59721125      4.56923063      6.01867329
